Circuit: * C:\Users\jarne\Documents\GitHub\IoT_energystorage_charger_ble\hardware\power-transmitting-unit\LTSpice\prereg\Prereg-lt8330.asc

Direct Newton iteration failed to find .op point.  (Use ".option noopiter" to skip.)
Starting Gmin stepping
Gmin = 10
Gmin = 1.07374
Gmin = 0.115292
Gmin = 0.0123794
Gmin = 0.00132923
Gmin = 0.000142725
Gmin = 1.5325e-05
Gmin = 1.6455e-06
vernier = 0.5
Gmin = 2.7607e-07
vernier = 0.25
vernier = 0.125
vernier = 0.0625
vernier = 0.03125
vernier = 0.015625
vernier = 0.0078125
vernier = 0.00390625
vernier = 0.00195312
vernier = 0.000976562
vernier = 0.000488281
Gmin = 2.7607e-07
Gmin = 0
Gmin stepping succeeded in finding the operating point.

Ignoring empty pin current: Ix(u1:2)
Ignoring empty pin current: Ix(u1:4)
Ignoring empty pin current: Ix(u1:2)
Ignoring empty pin current: Ix(u1:4)
Changing Tseed to 1e-08
Changing Tseed to 1e-10
Changing Tseed to 1e-07
Changing Tseed to 1e-11
Changing Tseed to 1e-06
Changing Tseed to 1e-12
Heightened Def Con from 0.00100889 to 0.00100889
Heightened Def Con from 0.00111584 to 0.00111584

Date: Thu Aug 24 12:41:03 2023
Total elapsed time: 54.794 seconds.

tnom = 27
temp = 27
method = modified trap
totiter = 3375506
traniter = 3373985
tranpoints = 1029701
accept = 810310
rejected = 219387
matrix size = 44
fillins = 2
solver = Normal
Avg thread counts: 2.0/1.0/1.0/1.0
Matrix Compiler1:      87 opcodes  0.6/[0.4]/1.0
Matrix Compiler2: 2.47 KB object code size  0.4/0.6/[0.4]

