Circuit: * C:\Users\jarne\Documents\GitHub\IoT_energystorage_charger_ble\hardware\power-transmitting-unit\LTSpice\Validation-Synchronous-Boostrap-Power-Supply.asc

Direct Newton iteration for .op point succeeded.

Date: Mon Aug  7 10:27:52 2023
Total elapsed time: 1.227 seconds.

tnom = 27
temp = 27
method = modified trap
totiter = 84435
traniter = 84427
tranpoints = 25449
accept = 19462
rejected = 5987
matrix size = 16
fillins = 1
solver = Normal
Avg thread counts: 3.0/1.0/1.0/1.0
Matrix Compiler1: 834 bytes object code size  0.5/0.3/[0.2]
Matrix Compiler2: 1.21 KB object code size  0.3/0.3/[0.2]

